*Heading
** FIELD-VARIABLE PROBE for vumat_grind.for
** Eight C3D8R cubes of 0.0003 mm, one per injected chip thickness.
** Material card copied verbatim from multi_abrasive_field.inp
** material: sandstone     dc = 8.775000e-05 mm (87.7500 nm)
**
** WHAT THIS ANSWERS
**   SDV14 must come back as the h injected into each element.
**   SDV13 must be 1 (ductile) where h < dc and 2 (brittle) above.
**   If every SDV14 is zero, field variable 1 is NOT reaching the
**   VUMAT, and every field-carrying deck in this project is
**   running 100%% ductile while looking entirely healthy.
**
** element   h/dc        h [mm]
**   1        0.10        8.775000000e-06
**   2        0.50        4.387500000e-05
**   3        0.90        7.897500000e-05
**   4        0.99        8.687250000e-05
**   5        1.01        8.862750000e-05
**   6        1.10        9.652500000e-05
**   7        2.00        1.755000000e-04
**   8        5.00        4.387500000e-04
**
*Part, name=P
*Node
1, 0.000000000000e+00, 0.000000000000e+00, 0.000000000000e+00
2, 3.000000000000e-04, 0.000000000000e+00, 0.000000000000e+00
3, 3.000000000000e-04, 3.000000000000e-04, 0.000000000000e+00
4, 0.000000000000e+00, 3.000000000000e-04, 0.000000000000e+00
5, 0.000000000000e+00, 0.000000000000e+00, 3.000000000000e-04
6, 3.000000000000e-04, 0.000000000000e+00, 3.000000000000e-04
7, 3.000000000000e-04, 3.000000000000e-04, 3.000000000000e-04
8, 0.000000000000e+00, 3.000000000000e-04, 3.000000000000e-04
9, 6.000000000000e-04, 0.000000000000e+00, 0.000000000000e+00
10, 9.000000000000e-04, 0.000000000000e+00, 0.000000000000e+00
11, 9.000000000000e-04, 3.000000000000e-04, 0.000000000000e+00
12, 6.000000000000e-04, 3.000000000000e-04, 0.000000000000e+00
13, 6.000000000000e-04, 0.000000000000e+00, 3.000000000000e-04
14, 9.000000000000e-04, 0.000000000000e+00, 3.000000000000e-04
15, 9.000000000000e-04, 3.000000000000e-04, 3.000000000000e-04
16, 6.000000000000e-04, 3.000000000000e-04, 3.000000000000e-04
17, 1.200000000000e-03, 0.000000000000e+00, 0.000000000000e+00
18, 1.500000000000e-03, 0.000000000000e+00, 0.000000000000e+00
19, 1.500000000000e-03, 3.000000000000e-04, 0.000000000000e+00
20, 1.200000000000e-03, 3.000000000000e-04, 0.000000000000e+00
** ... 44 like lines cut
*Element, type=C3D8R
1, 1, 2, 3, 4, 5, 6, 7, 8
2, 9, 10, 11, 12, 13, 14, 15, 16
3, 17, 18, 19, 20, 21, 22, 23, 24
4, 25, 26, 27, 28, 29, 30, 31, 32
5, 33, 34, 35, 36, 37, 38, 39, 40
6, 41, 42, 43, 44, 45, 46, 47, 48
7, 49, 50, 51, 52, 53, 54, 55, 56
8, 57, 58, 59, 60, 61, 62, 63, 64
*Elset, elset=ALL, generate
1, 8, 1
*Solid Section, elset=ALL, material=PROBE, controls=EC-1
,
*End Part
**
*Assembly, name=A
*Instance, name=P-1, part=P
*End Instance
*Nset, nset=NS1, instance=P-1
1, 2, 3, 4, 5, 6, 7, 8
*Nset, nset=NS2, instance=P-1
9, 10, 11, 12, 13, 14, 15, 16
*Nset, nset=NS3, instance=P-1
17, 18, 19, 20, 21, 22, 23, 24
*Nset, nset=NS4, instance=P-1
25, 26, 27, 28, 29, 30, 31, 32
*Nset, nset=NS5, instance=P-1
33, 34, 35, 36, 37, 38, 39, 40
*Nset, nset=NS6, instance=P-1
41, 42, 43, 44, 45, 46, 47, 48
*Nset, nset=NS7, instance=P-1
49, 50, 51, 52, 53, 54, 55, 56
*Nset, nset=NS8, instance=P-1
57, 58, 59, 60, 61, 62, 63, 64
*Nset, nset=BOT, instance=P-1
1, 2, 3, 4, 9, 10, 11, 12, 17, 18, 19, 20, 25, 26, 27, 28, 33, 34, 35, 36, 41, 42, 43, 44, 49, 50, 51, 52, 57, 58, 59, 60
*Nset, nset=TOP, instance=P-1
5, 6, 7, 8, 13, 14, 15, 16, 21, 22, 23, 24, 29, 30, 31, 32, 37, 38, 39, 40, 45, 46, 47, 48, 53, 54, 55, 56, 61, 62, 63, 64
*End Assembly
**
*Material, name=PROBE
*Density
2.35000000e-09,
*Depvar, delete=12
20,
*User Material, constants=56
3735.6, 2686.0, 1982.0, 1374.0, 8.0, 0.71, 0.3, 0.022
0.55, 0.4, 1.0, 0.002, 1.2, 9000.0, 22000.0, 0.25
912.0, 1.0, 1.0, 1.0, -1.0, 89.99961642274329, 50.0, 0.5
0.02, 1.0, 1.0, 6500.0, 0.21, 2.35e-09, 800000000.0, 0.9
293.15, 1473.15, 5e-07, 3.0, 0.3, 1.0, 2.0, 0.0
0.0, 0.15, -1.5, 0.0, 0.0, 1.0, 8.774999999999999e-05, 0.15
1000.0, 9.486832980505138, 2.0, 0.04, 5.4359871254358256e-05, -0.0037034448925679386, 25.00174709725184, 1.0
**
*Section Controls, name=EC-1, hourglass=ENHANCED, ELEMENT DELETION=YES
1., 1., 1.
**
** The whole point. variable=1 is what PROPS(56)=1 reads.
*Initial Conditions, type=FIELD, variable=1
NS1, 8.775e-06
NS2, 4.3874999999999996e-05
NS3, 7.8975e-05
NS4, 8.687249999999999e-05
NS5, 8.86275e-05
NS6, 9.6525e-05
NS7, 0.00017549999999999998
NS8, 0.00043874999999999996
**
*Step, name=S1, nlgeom=YES
*Dynamic, Explicit
, 2.000000000e-07
*Bulk Viscosity
0.06, 1.2
*Boundary
BOT, 1, 3
*Boundary, type=VELOCITY
TOP, 2, 2, -3.000000000e+02
TOP, 1, 1
TOP, 3, 3
*Output, field, number interval=20
*Node Output
U, V
*Element Output, directions=YES
S, SDV, STATUS
*Output, history, time interval=1.000000000e-09
*Energy Output
ALLIE, ALLKE, ALLAE, ALLPD
*End Step
